
     RDKit          3D

 21 21  0  0  0  0  0  0  0  0999 V2000
    3.4398   -0.7718   -0.3477 C   0  0  0  0  0  0  0  0  0  0  0  0
   -2.5922    1.5422    0.0452 C   0  0  0  0  0  0  0  0  0  0  0  0
   -1.7130    2.1047   -0.8579 C   0  0  0  0  0  0  0  0  0  0  0  0
   -2.2383    0.3393    0.6101 C   0  0  0  0  0  0  0  0  0  0  0  0
   -0.5162    1.4970   -1.1950 C   0  0  0  0  0  0  0  0  0  0  0  0
    2.1261   -0.1134   -0.1378 C   0  0  0  0  0  0  0  0  0  0  0  0
   -1.0466   -0.2732    0.2791 C   0  0  0  0  0  0  0  0  0  0  0  0
   -0.1743    0.2960   -0.6241 C   0  0  0  0  0  0  0  0  0  0  0  0
   -0.6835   -1.5606    0.8931 C   0  0  0  0  0  0  0  0  0  0  0  0
    2.0117    0.7248    0.7770 O   0  0  0  0  0  0  0  0  0  0  0  0
    0.3957   -2.1379    0.6079 O   0  0  0  0  0  0  0  0  0  0  0  0
   -1.5136   -2.1898    1.8095 O   0  0  0  0  0  0  0  0  0  0  0  0
    1.0047   -0.3777   -0.9075 O   0  0  0  0  0  0  0  0  0  0  0  0
    3.5577   -1.0023   -1.4257 H   0  0  0  0  0  0  0  0  0  0  0  0
    4.2247   -0.0496   -0.0484 H   0  0  0  0  0  0  0  0  0  0  0  0
    3.5694   -1.6824    0.2371 H   0  0  0  0  0  0  0  0  0  0  0  0
   -3.5365    2.0196    0.3126 H   0  0  0  0  0  0  0  0  0  0  0  0
   -1.9686    3.0356   -1.3062 H   0  0  0  0  0  0  0  0  0  0  0  0
   -2.9147   -0.1314    1.3294 H   0  0  0  0  0  0  0  0  0  0  0  0
    0.1823    1.9222   -1.8984 H   0  0  0  0  0  0  0  0  0  0  0  0
   -1.6147   -3.1913    1.8479 H   0  0  0  0  0  0  0  0  0  0  0  0
  1  6  1  0
  2  3  2  0
  2  4  1  0
  3  5  1  0
  4  7  2  0
  5  8  2  0
  6 10  2  0
  6 13  1  0
  7  8  1  0
  7  9  1  0
  8 13  1  0
  9 11  2  0
  9 12  1  0
  1 14  1  0
  1 15  1  0
  1 16  1  0
  2 17  1  0
  3 18  1  0
  4 19  1  0
  5 20  1  0
 12 21  1  0
M  END
